@<TRIPOS>MOLECULE
ZINC41475107_99
   40    41     0     0     0
SMALL
USER_CHARGES

mmff94s_NoEstat = 66.97
@<TRIPOS>ATOM
      1 C1         -1.3004   -6.4378    6.4190 C.ar      1 <0>        -0.1277
      2 C2         -2.4021   -6.5175    5.5672 C.ar      1 <0>        -0.0933
      3 C3         -0.4621   -5.3239    6.3725 C.ar      1 <0>        -0.0878
      4 C4          3.9117    2.4352    3.7109 C.ar      1 <0>        -0.0950
      5 C5          3.4616    1.7881    2.5602 C.ar      1 <0>        -0.1754
      6 C6         -2.6653   -5.4835    4.6688 C.ar      1 <0>        -0.1524
      7 C7          2.9209    0.7029    5.0727 C.ar      1 <0>        -0.1525
      8 C8          3.6414    1.8925    4.9672 C.ar      1 <0>        -0.0925
      9 C9         -0.7253   -4.2899    5.4741 C.ar      1 <0>        -0.1166
     10 C10         2.7411    0.5984    2.6656 C.ar      1 <0>         0.1061
     11 C11         2.4707    0.0558    3.9219 C.ar      1 <0>         0.1006
     12 C12        -1.8270   -4.3697    4.6222 C.ar      1 <0>         0.1006
     13 C13         2.6247    0.5958    0.2903 C.3       1 <0>         0.0252
     14 C14         0.1832   -3.0875    5.4263 C.3       1 <0>        -0.0767
     15 C15         4.1224    2.5847    6.1973 C.3       1 <0>         0.1199
     16 C16         1.4859   -3.3975    4.6886 C.3       1 <0>        -0.1124
     17 C17         2.4236   -2.1982    4.6789 C.3       1 <0>         0.0589
     18 O1          5.5223    2.3772    6.3396 O.3       1 <0>        -0.5677
     19 O2          2.3066   -0.0242    1.5348 O.3       1 <0>        -0.3054
     20 O3          1.7686   -1.1058    4.0372 O.3       1 <0>        -0.3024
     21 F1         -2.0880   -3.3810    3.7556 F         1 <0>        -0.1369
     22 H1         -1.0954   -7.2431    7.1184 H         1 <0>         0.1307
     23 H2         -3.0548   -7.3848    5.6033 H         1 <0>         0.1331
     24 H3          0.3941   -5.2707    7.0397 H         1 <0>         0.1331
     25 H4          4.4725    3.3616    3.6194 H         1 <0>         0.1285
     26 H5          3.6754    2.2163    1.5845 H         1 <0>         0.1379
     27 H6         -3.5230   -5.5453    4.0054 H         1 <0>         0.1358
     28 H7          2.7090    0.2780    6.0507 H         1 <0>         0.1354
     29 H8          2.2201   -0.0025   -0.5297 H         1 <0>         0.1017
     30 H9          3.7098    0.6819    0.1919 H         1 <0>         0.0557
     31 H10         2.1784    1.5928    0.2655 H         1 <0>         0.0556
     32 H11         0.4055   -2.7498    6.4469 H         1 <0>         0.0795
     33 H12        -0.3326   -2.2526    4.9346 H         1 <0>         0.0825
     34 H13         3.9311    3.6656    6.1501 H         1 <0>         0.0544
     35 H14         3.6158    2.2000    7.0931 H         1 <0>         0.0570
     36 H15         1.2796   -3.7049    3.6550 H         1 <0>         0.0782
     37 H16         1.9959   -4.2530    5.1509 H         1 <0>         0.0765
     38 H17         2.6837   -1.8974    5.6989 H         1 <0>         0.0627
     39 H18         3.3423   -2.4253    4.1286 H         1 <0>         0.0637
     40 H19         5.7925    2.8417    7.1478 H         1 <0>         0.3814
@<TRIPOS>BOND
     1    1    2 ar
     2    1    3 ar
     3    2    6 ar
     4    3    9 ar
     5    4    5 ar
     6    4    8 ar
     7    5   10 ar
     8    6   12 ar
     9    7    8 ar
    10    7   11 ar
    11    8   15 1
    12    9   12 ar
    13    9   14 1
    14   10   11 ar
    15   10   19 1
    16   11   20 1
    17   12   21 1
    18   13   19 1
    19   14   16 1
    20   15   18 1
    21   16   17 1
    22   17   20 1
    23    1   22 1
    24    2   23 1
    25    3   24 1
    26    4   25 1
    27    5   26 1
    28    6   27 1
    29    7   28 1
    30   13   29 1
    31   13   30 1
    32   13   31 1
    33   14   32 1
    34   14   33 1
    35   15   34 1
    36   15   35 1
    37   16   36 1
    38   16   37 1
    39   17   38 1
    40   17   39 1
    41   18   40 1
