@<TRIPOS>MOLECULE
ZINC41475107_151
   40    41     0     0     0
SMALL
USER_CHARGES

mmff94s_NoEstat = 67.23
@<TRIPOS>ATOM
      1 C1         -0.3424   -7.2781    6.4682 C.ar      1 <0>        -0.1277
      2 C2         -0.4792   -8.0238    5.2974 C.ar      1 <0>        -0.0933
      3 C3          0.5021   -6.1682    6.4936 C.ar      1 <0>        -0.0878
      4 C4          3.9169    2.4273    3.6627 C.ar      1 <0>        -0.0950
      5 C5          3.1285    2.2112    4.7929 C.ar      1 <0>        -0.1754
      6 C6          0.2286   -7.6597    4.1520 C.ar      1 <0>        -0.1524
      7 C7          3.2591    0.2719    2.7917 C.ar      1 <0>        -0.1525
      8 C8          3.9821    1.4577    2.6620 C.ar      1 <0>        -0.0925
      9 C9          1.2099   -5.8041    5.3481 C.ar      1 <0>        -0.1166
     10 C10         2.4054    1.0254    4.9225 C.ar      1 <0>         0.1061
     11 C11         2.4707    0.0558    3.9219 C.ar      1 <0>         0.1006
     12 C12         1.0732   -6.5498    4.1773 C.ar      1 <0>         0.1006
     13 C13         0.2850    1.2698    5.9713 C.3       1 <0>         0.0252
     14 C14         2.1222   -4.6040    5.3792 C.3       1 <0>        -0.0767
     15 C15         4.8254    1.6887    1.4541 C.3       1 <0>         0.1199
     16 C16         1.4859   -3.3975    4.6886 C.3       1 <0>        -0.1124
     17 C17         2.4236   -2.1982    4.6789 C.3       1 <0>         0.0589
     18 O1          6.1794    1.8695    1.8505 O.3       1 <0>        -0.5677
     19 O2          1.6392    0.8257    6.0307 O.3       1 <0>        -0.3054
     20 O3          1.7686   -1.1058    4.0372 O.3       1 <0>        -0.3024
     21 F1          1.7492   -6.2077    3.0716 F         1 <0>        -0.1369
     22 H1         -0.8933   -7.5619    7.3602 H         1 <0>         0.1307
     23 H2         -1.1366   -8.8881    5.2777 H         1 <0>         0.1331
     24 H3          0.6027   -5.5935    7.4105 H         1 <0>         0.1331
     25 H4          4.4768    3.3541    3.5699 H         1 <0>         0.1285
     26 H5          3.0821    2.9706    5.5688 H         1 <0>         0.1379
     27 H6          0.1224   -8.2401    3.2402 H         1 <0>         0.1358
     28 H7          3.3084   -0.4853    2.0131 H         1 <0>         0.1354
     29 H8         -0.2131    1.0503    6.9188 H         1 <0>         0.1017
     30 H9         -0.2297    0.7634    5.1509 H         1 <0>         0.0557
     31 H10         0.2719    2.3482    5.7966 H         1 <0>         0.0556
     32 H11         3.0754   -4.8500    4.8937 H         1 <0>         0.0795
     33 H12         2.3662   -4.3508    6.4191 H         1 <0>         0.0825
     34 H13         4.7736    0.8384    0.7602 H         1 <0>         0.0544
     35 H14         4.4963    2.5816    0.9050 H         1 <0>         0.0570
     36 H15         0.5471   -3.1198    5.1856 H         1 <0>         0.0782
     37 H16         1.2064   -3.6478    3.6567 H         1 <0>         0.0765
     38 H17         2.6837   -1.8974    5.6989 H         1 <0>         0.0627
     39 H18         3.3423   -2.4253    4.1286 H         1 <0>         0.0637
     40 H19         6.6906    2.0160    1.0386 H         1 <0>         0.3814
@<TRIPOS>BOND
     1    1    2 ar
     2    1    3 ar
     3    2    6 ar
     4    3    9 ar
     5    4    5 ar
     6    4    8 ar
     7    5   10 ar
     8    6   12 ar
     9    7    8 ar
    10    7   11 ar
    11    8   15 1
    12    9   12 ar
    13    9   14 1
    14   10   11 ar
    15   10   19 1
    16   11   20 1
    17   12   21 1
    18   13   19 1
    19   14   16 1
    20   15   18 1
    21   16   17 1
    22   17   20 1
    23    1   22 1
    24    2   23 1
    25    3   24 1
    26    4   25 1
    27    5   26 1
    28    6   27 1
    29    7   28 1
    30   13   29 1
    31   13   30 1
    32   13   31 1
    33   14   32 1
    34   14   33 1
    35   15   34 1
    36   15   35 1
    37   16   36 1
    38   16   37 1
    39   17   38 1
    40   17   39 1
    41   18   40 1
