@<TRIPOS>MOLECULE
ZINC41475107_197
   40    41     0     0     0
SMALL
USER_CHARGES

mmff94s_NoEstat = 67.42
@<TRIPOS>ATOM
      1 C1          1.6907   -4.0447    9.1091 C.ar      1 <0>        -0.1277
      2 C2          3.0014   -3.7759    9.5036 C.ar      1 <0>        -0.0933
      3 C3          1.4066   -4.3135    7.7702 C.ar      1 <0>        -0.0878
      4 C4          3.9169    2.4273    3.6627 C.ar      1 <0>        -0.0950
      5 C5          3.1285    2.2112    4.7929 C.ar      1 <0>        -0.1754
      6 C6          4.0278   -3.7758    8.5591 C.ar      1 <0>        -0.1524
      7 C7          3.2591    0.2719    2.7917 C.ar      1 <0>        -0.1525
      8 C8          3.9821    1.4577    2.6620 C.ar      1 <0>        -0.0925
      9 C9          2.4330   -4.3134    6.8257 C.ar      1 <0>        -0.1166
     10 C10         2.4054    1.0254    4.9225 C.ar      1 <0>         0.1061
     11 C11         2.4707    0.0558    3.9219 C.ar      1 <0>         0.1006
     12 C12         3.7437   -4.0445    7.2201 C.ar      1 <0>         0.1006
     13 C13         1.6270    1.8659    7.0066 C.3       1 <0>         0.0252
     14 C14         2.1222   -4.6040    5.3792 C.3       1 <0>        -0.0767
     15 C15         4.8254    1.6887    1.4541 C.3       1 <0>         0.1199
     16 C16         1.4859   -3.3975    4.6886 C.3       1 <0>        -0.1124
     17 C17         2.4236   -2.1982    4.6789 C.3       1 <0>         0.0589
     18 O1          6.0081    0.9039    1.5462 O.3       1 <0>        -0.5677
     19 O2          1.6392    0.8257    6.0307 O.3       1 <0>        -0.3054
     20 O3          1.7686   -1.1058    4.0372 O.3       1 <0>        -0.3024
     21 F1          4.7367   -4.0422    6.3198 F         1 <0>        -0.1369
     22 H1          0.8915   -4.0445    9.8446 H         1 <0>         0.1307
     23 H2          3.2226   -3.5665   10.5460 H         1 <0>         0.1331
     24 H3          0.3823   -4.5213    7.4721 H         1 <0>         0.1331
     25 H4          4.4768    3.3541    3.5699 H         1 <0>         0.1285
     26 H5          3.0821    2.9706    5.5688 H         1 <0>         0.1379
     27 H6          5.0484   -3.5665    8.8658 H         1 <0>         0.1358
     28 H7          3.3084   -0.4853    2.0131 H         1 <0>         0.1354
     29 H8          0.9778    1.5793    7.8376 H         1 <0>         0.1017
     30 H9          1.2655    2.7908    6.5501 H         1 <0>         0.0557
     31 H10         2.6436    2.0178    7.3770 H         1 <0>         0.0556
     32 H11         1.4494   -5.4686    5.3109 H         1 <0>         0.0795
     33 H12         3.0418   -4.8910    4.8530 H         1 <0>         0.0825
     34 H13         4.2922    1.4128    0.5339 H         1 <0>         0.0544
     35 H14         5.1097    2.7462    1.3647 H         1 <0>         0.0570
     36 H15         0.5471   -3.1198    5.1856 H         1 <0>         0.0782
     37 H16         1.2064   -3.6478    3.6567 H         1 <0>         0.0765
     38 H17         2.6837   -1.8974    5.6989 H         1 <0>         0.0627
     39 H18         3.3423   -2.4253    4.1286 H         1 <0>         0.0637
     40 H19         6.5252    1.0833    0.7447 H         1 <0>         0.3814
@<TRIPOS>BOND
     1    1    2 ar
     2    1    3 ar
     3    2    6 ar
     4    3    9 ar
     5    4    5 ar
     6    4    8 ar
     7    5   10 ar
     8    6   12 ar
     9    7    8 ar
    10    7   11 ar
    11    8   15 1
    12    9   12 ar
    13    9   14 1
    14   10   11 ar
    15   10   19 1
    16   11   20 1
    17   12   21 1
    18   13   19 1
    19   14   16 1
    20   15   18 1
    21   16   17 1
    22   17   20 1
    23    1   22 1
    24    2   23 1
    25    3   24 1
    26    4   25 1
    27    5   26 1
    28    6   27 1
    29    7   28 1
    30   13   29 1
    31   13   30 1
    32   13   31 1
    33   14   32 1
    34   14   33 1
    35   15   34 1
    36   15   35 1
    37   16   36 1
    38   16   37 1
    39   17   38 1
    40   17   39 1
    41   18   40 1
