@<TRIPOS>MOLECULE
ZINC41475107_133
   40    41     0     0     0
SMALL
USER_CHARGES

mmff94s_NoEstat = 67.16
@<TRIPOS>ATOM
      1 C1          4.0152   -5.9197    1.9973 C.ar      1 <0>        -0.1277
      2 C2          4.5696   -5.0705    1.0396 C.ar      1 <0>        -0.0933
      3 C3          2.8928   -5.5164    2.7209 C.ar      1 <0>        -0.0878
      4 C4          2.8678    2.7119    5.2436 C.ar      1 <0>        -0.0950
      5 C5          1.5434    2.2960    5.3788 C.ar      1 <0>        -0.1754
      6 C6          4.0019   -3.8181    0.8056 C.ar      1 <0>        -0.1524
      7 C7          3.4460    0.5640    4.3004 C.ar      1 <0>        -0.1525
      8 C8          3.8192    1.8459    4.7042 C.ar      1 <0>        -0.0925
      9 C9          2.3251   -4.2640    2.4868 C.ar      1 <0>        -0.1166
     10 C10         1.1701    1.0141    4.9749 C.ar      1 <0>         0.1061
     11 C11         2.1214    0.1481    4.4357 C.ar      1 <0>         0.1006
     12 C12         2.8796   -3.4149    1.5292 C.ar      1 <0>         0.1006
     13 C13        -0.4857   -0.0100    6.3406 C.3       1 <0>         0.0252
     14 C14         1.1122   -3.8313    3.2711 C.3       1 <0>        -0.0767
     15 C15         5.2352    2.2906    4.5601 C.3       1 <0>         0.1199
     16 C16         1.4859   -3.3975    4.6886 C.3       1 <0>        -0.1124
     17 C17         2.4236   -2.1982    4.6789 C.3       1 <0>         0.0589
     18 O1          6.0289    1.6741    5.5667 O.3       1 <0>        -0.5677
     19 O2         -0.1262    0.6193    5.1121 O.3       1 <0>        -0.3054
     20 O3          1.7686   -1.1058    4.0372 O.3       1 <0>        -0.3024
     21 F1          2.3410   -2.2096    1.2972 F         1 <0>        -0.1369
     22 H1          4.4575   -6.8947    2.1797 H         1 <0>         0.1307
     23 H2          5.4435   -5.3844    0.4763 H         1 <0>         0.1331
     24 H3          2.4681   -6.1846    3.4654 H         1 <0>         0.1331
     25 H4          3.1498    3.7124    5.5607 H         1 <0>         0.1285
     26 H5          0.8072    2.9755    5.7998 H         1 <0>         0.1379
     27 H6          4.4333   -3.1567    0.0600 H         1 <0>         0.1358
     28 H7          4.1857   -0.1127    3.8798 H         1 <0>         0.1354
     29 H8         -1.5458   -0.2744    6.3188 H         1 <0>         0.1017
     30 H9         -0.2860    0.6708    7.1719 H         1 <0>         0.0557
     31 H10         0.1111   -0.9169    6.4634 H         1 <0>         0.0556
     32 H11         0.3854   -4.6528    3.3134 H         1 <0>         0.0795
     33 H12         0.6093   -3.0060    2.7504 H         1 <0>         0.0825
     34 H13         5.6428    2.0188    3.5767 H         1 <0>         0.0544
     35 H14         5.3212    3.3812    4.6616 H         1 <0>         0.0570
     36 H15         1.9608   -4.2248    5.2322 H         1 <0>         0.0782
     37 H16         0.5851   -3.1490    5.2653 H         1 <0>         0.0765
     38 H17         2.6837   -1.8974    5.6989 H         1 <0>         0.0627
     39 H18         3.3423   -2.4253    4.1286 H         1 <0>         0.0637
     40 H19         6.9378    1.9890    5.4371 H         1 <0>         0.3814
@<TRIPOS>BOND
     1    1    2 ar
     2    1    3 ar
     3    2    6 ar
     4    3    9 ar
     5    4    5 ar
     6    4    8 ar
     7    5   10 ar
     8    6   12 ar
     9    7    8 ar
    10    7   11 ar
    11    8   15 1
    12    9   12 ar
    13    9   14 1
    14   10   11 ar
    15   10   19 1
    16   11   20 1
    17   12   21 1
    18   13   19 1
    19   14   16 1
    20   15   18 1
    21   16   17 1
    22   17   20 1
    23    1   22 1
    24    2   23 1
    25    3   24 1
    26    4   25 1
    27    5   26 1
    28    6   27 1
    29    7   28 1
    30   13   29 1
    31   13   30 1
    32   13   31 1
    33   14   32 1
    34   14   33 1
    35   15   34 1
    36   15   35 1
    37   16   36 1
    38   16   37 1
    39   17   38 1
    40   17   39 1
    41   18   40 1
